16
 SCF done        -28.427940727227          0.001209513055
O          -2.94954451337551    0.41756772104132    0.39570906486802
C          -1.94726532077404    0.00496590632354   -0.21387039282475
O          -1.86486267613291   -0.98425618175571   -0.96529807180037
C          -0.63082938495411    0.85257294318251   -0.03309484428487
C           0.59645164744937   -0.03287653921399   -0.06815433659886
C           1.90438518068492    0.74037017428706   -0.24605311458592
N           3.05907283524481   -0.19683120033081   -0.20769489026400
H          -0.60859388824722    1.55863625302213   -0.86234378437503
H          -0.70691653721786    1.39879504806108    0.90589734163572
F           0.71886137831986   -0.72287937449757    1.14252449306844
H           0.44625382173731   -0.80706377016452   -0.83173237571128
H           1.87791981471676    1.27078699161807   -1.19694917851462
H           1.99775942946239    1.45578778965541    0.57362920347930
H           3.95147619228729    0.31823090034354   -0.21891777872034
H           3.02685050790199   -0.84412002131880   -1.00946488836316
H           2.99602715486291   -0.75495857538077    0.65883171551972
