31
-9.1724809262591930e+02 frame 22   xyz file generated by TeraChem
     C    -1.3634783960    0.7418380125    1.0392532252
     C     0.0207544828    0.9108367950    1.0728825806
     C     0.8580949149   -0.0023509023    0.4186123183
     C     0.3072131055   -1.0898755883   -0.2719488038
     C    -1.0757694088   -1.2682499876   -0.3114873120
     C    -1.9278645918   -0.3518807718    0.3449707141
     C    -3.3401800505   -0.5268816618    0.3045973410
     C    -4.5495162564   -0.6752116833    0.2655192991
     C    -5.9543040906   -0.8904794567    0.1893027587
     O    -6.5318278890   -1.8192769362   -0.3679226324
     O    -6.6433148707    0.1896392968    0.8016909207
     C    -7.9499008892    0.0331448250    1.3373921251
     O    -8.3557516047   -1.0271881397    1.8034578821
     C    -8.6384359084    1.2782532115    1.3090553682
     C    -9.2598265770    2.3270898496    1.3035470637
     C    -9.9852961180    3.5521065958    1.2998434734
     C   -11.2749280596    3.6201136748    1.8734611064
     C   -11.9792928913    4.8242461449    1.8716277549
     C   -11.4120129013    5.9715695016    1.3016356082
     C   -10.1341215761    5.9131678327    0.7300641184
     C    -9.4214699325    4.7140213563    0.7263080150
     H    -2.0182605522    1.4441721665    1.5431163729
     H     0.4473708587    1.7525990260    1.6080771263
     H     1.9344304913    0.1327556602    0.4468199642
     H     0.9556024272   -1.7970100731   -0.7783733863
     H    -1.5097875338   -2.1072832586   -0.8438990729
     H   -11.7069819178    2.7278990193    2.3128962126
     H   -12.9689998254    4.8694062579    2.3136267339
     H   -11.9629579866    6.9064711956    1.3029238743
     H    -9.6951059934    6.8015550517    0.2884232110
     H    -8.4318486254    4.6608040044    0.2861678924
31
-9.1722427795804765e+02 frame 30   xyz file generated by TeraChem
     C    -2.1287322094    6.3487420332    0.4282231057
     C    -0.7511712306    6.5130594714    0.2558208792
     C    -0.0842994970    5.8669715134   -0.7917947503
     C    -0.8121658031    5.0520098301   -1.6680563852
     C    -2.1833668095    4.8680034139   -1.4937469792
     C    -2.8631782480    5.5218441671   -0.4418988160
     C    -4.3243007505    5.3416799172   -0.2476945972
     C    -5.2287694468    6.3442328915   -0.1398700746
     C    -5.0617171903    7.8034148527   -0.3544150955
     O    -4.0942706152    8.5418355004   -0.2629876164
     O    -6.3341624775    8.3116508649   -0.7424272472
     C    -7.3509291098    7.2914542809   -0.7293530740
     O    -8.5032138084    7.5344537863   -1.0330228555
     C    -6.6845995290    6.0649139775   -0.2383514554
     C    -7.1027952083    4.8210810708    0.0085724999
     C    -6.2382175662    3.8080586314    0.3443084848
     C    -6.4485970912    2.9930776032    1.4953986044
     C    -5.4584119939    2.1193429447    1.9161820964
     C    -4.2419234618    2.0017308642    1.1594593056
     C    -3.9564583892    2.7425873190    0.0841356052
     C    -4.8907689220    3.8297509419   -0.3741569124
     H    -2.6349809547    6.8573756732    1.2372231424
     H    -0.2051095665    7.1615096120    0.9334918047
     H     0.9780909362    6.0097111468   -0.9376354573
     H    -0.3052202399    4.5707327703   -2.5008001496
     H    -2.7351091681    4.2496451088   -2.1949947156
     H    -7.3749401080    3.0577521398    2.0415995029
     H    -5.6148123137    1.5095208554    2.7849200395
     H    -3.5500941454    1.2072553143    1.4965418983
     H    -3.0697659838    2.5687705195   -0.5176364121
     H    -5.0397090980    3.7516309843   -1.4711343758
