284
Generated by Nanoreactor.  Frame -1 Energy -48.6123776515
   N   21.463999999999999 6.593 -4.077
   H   20.921999999999997 7.4470000000000001 -4.0510000000000002
   H   21.635999999999999 6.3310000000000004 -5.0369999999999999
   H   20.950999999999997 5.859 -3.6110000000000002
   C   22.745999999999999 6.8209999999999997 -3.3779999999999997
   H   23.277999999999999 7.6150000000000002 -3.903
   C   22.484000000000002 7.3109999999999999 -1.954
   H   21.661999999999999 6.7569999999999997 -1.4970000000000001
   H   23.382999999999999 7.1859999999999999 -1.347
   C   22.146000000000001 8.7880000000000003 -2.0630000000000002
   O   21.166 9.0399999999999991 -2.7999999999999998
   O   22.939 9.597999999999999 -1.5459999999999998
   C   23.652999999999999 5.6059999999999999 -3.363
   O   23.241 4.5250000000000004 -2.9489999999999998
   N   24.908000000000001 5.8150000000000004 -3.7699999999999996
   H   25.173999999999999 6.7329999999999997 -4.0970000000000004
   C   25.968 4.8209999999999997 -3.6560000000000001
   H   25.629000000000001 3.899 -4.1310000000000002
   C   27.190000000000001 5.3289999999999997 -4.4299999999999997
   H   27.995000000000001 4.5949999999999998 -4.3680000000000003
   H   26.928000000000001 5.4749999999999996 -5.4790000000000001
   H   27.533000000000001 6.2770000000000001 -4.0119999999999996
   C   26.308 4.5039999999999996 -2.1880000000000002
   O   26.484999999999999 3.3359999999999999 -1.855
   N   26.356999999999996 5.5110000000000001 -1.298
   H   26.204000000000001 6.4580000000000002 -1.615
   C   26.690999999999999 5.3170000000000002 0.123
   H   27.658000000000001 4.8140000000000001 0.157
   C   26.847999999999999 6.673 0.83699999999999997
   H   27.190999999999999 7.4169999999999998 0.11599999999999999
   H   25.879999999999999 7.0099999999999998 1.2110000000000001
   C   27.846 6.625 1.984
   C   27.565999999999999 5.8920000000000003 3.1549999999999998
   H   26.606000000000002 5.4199999999999999 3.29
   C   28.547999999999998 5.7530000000000001 4.1539999999999999
   H   28.339999999999996 5.1749999999999998 5.0409999999999995
   C   29.815000000000001 6.351 3.9889999999999999
   O   30.776 6.1559999999999988 4.931
   H   31.597999999999999 6.6009999999999991 4.7149999999999999
   C   30.079000000000001 7.1319999999999997 2.843
   H   31.039999999999999 7.609 2.7130000000000001
   C   29.09 7.2709999999999999 1.853
   H   29.295000000000002 7.8659999999999997 0.97999999999999998
   C   25.661999999999999 4.4329999999999998 0.84699999999999998
   O   26.023 3.5760000000000001 1.6549999999999998
   N   24.375 4.5990000000000002 0.51600000000000001
   H   24.129999999999999 5.3170000000000002 -0.14999999999999999
   C   23.305 3.738 1.01
   H   23.253 3.8460000000000001 2.0939999999999999
   C   21.972999999999999 4.2119999999999997 0.41399999999999998
   H   21.158999999999999 3.6040000000000001 0.81100000000000005
   H   21.797999999999998 5.2539999999999996 0.68400000000000005
   H   21.987999999999996 4.1180000000000003 -0.67100000000000004
   C   23.596 2.2639999999999998 0.68500000000000005
   O   23.536999999999999 1.409 1.571
   N   23.956 1.978 -0.57299999999999995
   H   24.010000000000002 2.7250000000000001 -1.2509999999999999
   C   24.324000000000002 0.63600000000000001 -1.0149999999999999
   H   23.524999999999999 -0.021999999999999999 -0.67800000000000005
   C   24.353999999999999 0.59299999999999997 -2.5499999999999994
   H   23.620000000000001 1.3089999999999999 -2.923
   H   25.332000000000001 0.89600000000000002 -2.9260000000000002
   C   23.988 -0.80200000000000005 -3.0899999999999999
   H   24.899000000000001 -1.381 -3.2429999999999999
   H   23.364999999999998 -1.337 -2.3719999999999999
   C   23.210000000000001 -0.70499999999999996 -4.3979999999999997
   O   23.719999999999999 -0.95799999999999996 -5.476
   N   21.947999999999997 -0.314 -4.3449999999999998
   H   21.518999999999998 -0.113 -3.456
   H   21.419 -0.25800000000000001 -5.202
   C   25.638000000000002 0.157 -0.378
   O   25.693000000000001 -0.96299999999999997 0.11700000000000001
   N   26.657 1.026 -0.29599999999999999
   H   26.529 1.9470000000000001 -0.68400000000000005
   C   27.939 0.76500000000000001 0.37
   H   28.486999999999998 0.044999999999999998 -0.23899999999999999
   C   28.768999999999998 2.0600000000000001 0.434
   H   28.800999999999998 2.5089999999999999 -0.56000000000000005
   H   28.292000000000002 2.7690000000000001 1.1040000000000001
   C   30.175999999999998 1.8720000000000001 0.90200000000000002
   C   31.202999999999999 1.5069999999999999 0.11
   H   31.135000000000002 1.3480000000000001 -0.95499999999999996
   N   32.335000000000001 1.325 0.87599999999999989
   H   33.219000000000001 1.0349999999999999 0.48999999999999999
   C   32.119 1.6639999999999999 2.1920000000000002
   C   32.957000000000001 1.71 3.3159999999999998
   H   33.993000000000002 1.4129999999999998 3.2400000000000002
   C   32.433999999999997 2.181 4.532
   H   33.069000000000003 2.2480000000000002 5.4039999999999999
   C   31.084 2.5670000000000002 4.6139999999999999
   H   30.687000000000001 2.9319999999999999 5.5499999999999998
   C   30.248000000000001 2.4910000000000001 3.4820000000000002
   H   29.218 2.7989999999999999 3.5579999999999998
   C   30.743999999999996 2.0419999999999998 2.2389999999999999
   C   27.748000000000001 0.14999999999999999 1.7629999999999999
   O   28.318999999999999 -0.90100000000000002 2.056
   N   26.896000000000001 0.76800000000000002 2.593
   H   26.456 1.627 2.2929999999999997
   C   26.513000000000002 0.223 3.8959999999999995
   H   27.428000000000001 0.01 4.4489999999999998
   C   25.702000000000002 1.2649999999999999 4.6849999999999996
   H   24.850000000000001 1.5700000000000001 4.0739999999999998
   H   25.312000000000001 0.79599999999999993 5.5899999999999999
   C   26.508999999999997 2.5169999999999999 5.0869999999999997
   H   27.0 2.9329999999999998 4.2080000000000002
   C   25.558999999999997 3.581 5.6399999999999997
   H   24.827000000000002 3.8540000000000001 4.8789999999999996
   H   25.039000000000001 3.2000000000000002 6.5199999999999996
   H   26.120000000000001 4.4740000000000002 5.9169999999999998
   C   27.568999999999999 2.2120000000000002 6.1529999999999996
   H   28.074999999999999 3.1309999999999993 6.4489999999999998
   H   27.099999999999998 1.7669999999999999 7.0309999999999997
   H   28.315999999999999 1.524 5.7599999999999998
   C   25.751000000000001 -1.109 3.7770000000000001
   O   26.102 -2.0470000000000002 4.4900000000000002
   N   24.754000000000001 -1.222 2.8789999999999996
   H   24.539999999999999 -0.42799999999999999 2.2919999999999998
   C   23.983000000000001 -2.4649999999999999 2.653
   H   23.462 -2.702 3.5819999999999999
   C   22.933 -2.2999999999999998 1.5329999999999999
   H   23.225999999999999 -1.51 0.84799999999999998
   H   22.885999999999999 -3.226 0.95599999999999996
   C   21.515000000000001 -2.036 2.0550000000000002
   H   20.808 -2.1819999999999999 1.2370000000000001
   H   21.280999999999995 -2.7579999999999996 2.839
   C   21.346 -0.61199999999999988 2.5920000000000001
   H   22.129999999999999 -0.40300000000000002 3.3210000000000002
   H   21.411999999999999 0.094 1.766
   C   19.984999999999999 -0.45400000000000001 3.27
   H   19.201000000000001 -0.47999999999999998 2.5109999999999997
   H   19.832999999999998 -1.2849999999999999 3.9620000000000002
   N   19.917000000000002 0.81899999999999995 4.024
   H   18.984000000000002 0.95399999999999996 4.3899999999999997
   H   20.573 0.79300000000000004 4.7930000000000001
   H   20.152999999999999 1.5900000000000001 3.415
   C   24.869 -3.673 2.3420000000000001
   O   24.635999999999999 -4.7409999999999997 2.8999999999999999
   N   25.876999999999999 -3.512 1.48
   H   26.007000000000001 -2.617 1.0309999999999999
   C   26.832999999999998 -4.5780000000000003 1.163
   H   26.271999999999998 -5.4649999999999999 0.86499999999999999
   C   27.701000000000001 -4.1470000000000002 -0.031
   H   28.099 -3.1469999999999998 0.14899999999999999
   H   28.550999999999998 -4.8259999999999996 -0.112
   C   26.954000000000001 -4.1689999999999996 -1.3720000000000001
   O   26.283000000000001 -3.1720000000000002 -1.7070000000000001
   O   27.192 -5.1109999999999998 -2.1629999999999998
   C   27.727 -4.9800000000000004 2.3570000000000002
   O   28.297999999999998 -6.0670000000000002 2.3279999999999998
   N   27.852 -4.1390000000000002 3.3980000000000001
   H   27.331 -3.2730000000000001 3.3779999999999997
   C   28.693000000000001 -4.3829999999999991 4.5800000000000001
   H   28.047000000000001 -4.3449999999999998 5.4569999999999999
   H   29.128 -5.3810000000000002 4.5289999999999999
   C   29.832000000000001 -3.3740000000000001 4.7910000000000004
   O   30.690999999999999 -3.605 5.6500000000000004
   N   29.855 -2.2770000000000001 4.0199999999999996
   H   29.126000000000001 -2.1850000000000001 3.3260000000000001
   C   30.827999999999999 -1.1850000000000001 4.0620000000000003
   H   30.677 -0.56499999999999995 3.1800000000000002
   H   30.611000000000001 -0.56699999999999995 4.9290000000000003
   C   32.287999999999997 -1.659 4.0540000000000003
   O   32.720999999999997 -2.2170000000000001 3.0419999999999998
   N   33.058 -1.4759999999999998 5.1509999999999998
   C   32.668999999999997 -0.82299999999999995 6.3940000000000001
   H   32.073 -1.5129999999999999 6.9930000000000003
   H   32.113999999999997 0.097000000000000003 6.2190000000000003
   C   33.972999999999999 -0.502 7.1189999999999998
   H   33.840000000000003 -0.47999999999999998 8.2010000000000005
   H   34.368000000000002 0.44900000000000001 6.7590000000000003
   C   34.895000000000003 -1.6359999999999999 6.6820000000000004
   H   34.731000000000002 -2.4969999999999999 7.3330000000000002
   H   35.942999999999998 -1.3360000000000001 6.7110000000000003
   C   34.439999999999998 -1.9550000000000001 5.2519999999999998
   H   35.049999999999997 -1.3859999999999999 4.5490000000000004
   C   34.600999999999999 -3.4540000000000002 4.9619999999999997
   O   35.633000000000003 -3.863 4.4359999999999999
   N   33.573 -4.2599999999999998 5.2639999999999993
   H   32.747 -3.8490000000000002 5.6760000000000002
   C   33.561 -5.7189999999999994 5.0759999999999996
   H   34.369 -6.1520000000000001 5.6669999999999998
   C   32.228000000000002 -6.3209999999999997 5.5519999999999996
   H   31.468999999999998 -6.1820000000000004 4.7809999999999997
   H   32.360999999999997 -7.391 5.718
   O   31.758999999999997 -5.7149999999999999 6.7409999999999997
   H   31.318000000000001 -4.891 6.5049999999999999
   C   33.759999999999998 -6.1059999999999999 3.6080000000000001
   O   34.433999999999997 -7.0830000000000002 3.2989999999999999
   N   33.152000000000001 -5.3259999999999996 2.71
   H   32.628999999999998 -4.532 3.0539999999999998
   C   33.097999999999999 -5.5430000000000001 1.266
   H   32.938000000000002 -6.6029999999999998 1.0660000000000001
   C   31.925999999999995 -4.734 0.69699999999999995
   H   32.264000000000003 -3.7160000000000002 0.52500000000000002
   H   31.595999999999997 -5.1660000000000004 -0.248
   O   30.844999999999999 -4.6559999999999997 1.6020000000000001
   H   30.401 -5.5090000000000003 1.6419999999999999
   C   34.359999999999999 -5.0730000000000004 0.53700000000000003
   O   34.555999999999997 -5.4130000000000003 -0.626
   N   35.168999999999997 -4.2140000000000004 1.1719999999999999
   H   34.933 -3.9589999999999996 2.121
   C   36.409999999999997 -3.6429999999999998 0.63600000000000001
   H   36.942999999999998 -3.1659999999999999 1.4589999999999999
   H   37.027000000000001 -4.4619999999999997 0.26500000000000001
   C   36.255000000000003 -2.613 -0.497
   O   37.210999999999999 -1.8979999999999999 -0.79200000000000004
   N   35.07 -2.4969999999999999 -1.115
   H   34.334000000000003 -3.1320000000000001 -0.84199999999999997
   C   34.726999999999997 -1.4650000000000001 -2.1080000000000001
   H   35.375999999999991 -1.6399999999999999 -2.9630000000000001
   C   33.283999999999999 -1.6559999999999999 -2.6179999999999999
   H   33.061 -0.89400000000000002 -3.3660000000000001
   H   33.252000000000002 -2.6240000000000001 -3.1200000000000001
   C   32.198 -1.623 -1.5269999999999999
   H   32.616 -1.9410000000000001 -0.57499999999999996
   H   31.847999999999999 -0.60499999999999998 -1.4039999999999999
   C   31.013000000000002 -2.5369999999999999 -1.8559999999999999
   H   31.381999999999998 -3.4860000000000002 -2.2480000000000002
   H   30.481000000000002 -2.7429999999999999 -0.92600000000000005
   N   30.045999999999999 -1.9259999999999999 -2.7890000000000001
   H   29.984999999999999 -0.92000000000000004 -2.774
   C   29.053999999999998 -2.5899999999999999 -3.371
   N   29.096 -3.8919999999999999 -3.5059999999999998
   H   29.893999999999998 -4.407 -3.1720000000000002
   H   28.262 -4.3920000000000003 -3.7839999999999998
   N   27.977 -1.966 -3.7759999999999998
   H   27.888000000000002 -0.97199999999999998 -3.6480000000000001
   H   27.190000000000001 -2.5049999999999999 -4.1070000000000002
   C   34.979999999999997 -0.047 -1.5509999999999997
   O   34.466999999999999 0.25900000000000001 -0.47199999999999998
   N   35.750999999999998 0.82099999999999995 -2.2389999999999999
   C   36.477999999999994 0.55000000000000004 -3.472
   H   35.783999999999999 0.56699999999999995 -4.3129999999999997
   H   37.003 -0.40400000000000003 -3.4289999999999998
   C   37.494999999999997 1.6779999999999999 -3.617
   H   37.715000000000003 1.891 -4.6630000000000003
   H   38.406999999999989 1.4179999999999999 -3.0760000000000001
   C   36.808 2.8530000000000002 -2.927
   H   36.129999999999995 3.3340000000000001 -3.6349999999999993
   H   37.530999999999999 3.5750000000000002 -2.5449999999999995
   C   36.015999999999998 2.1909999999999998 -1.7909999999999999
   H   36.661000000000001 2.1230000000000002 -0.91700000000000004
   C   34.725000000000001 2.9769999999999999 -1.472
   O   33.816000000000003 2.988 -2.306
   N   34.609999999999999 3.6309999999999998 -0.29699999999999999
   C   35.518000000000001 3.5630000000000002 0.83699999999999997
   H   36.552999999999997 3.7189999999999999 0.53100000000000003
   H   35.408000000000001 2.5950000000000002 1.3280000000000001
   C   35.091000000000001 4.6799999999999997 1.7869999999999999
   H   35.634999999999998 5.593 1.538
   H   35.259999999999991 4.4089999999999998 2.8300000000000001
   C   33.606999999999999 4.8819999999999997 1.49
   H   33.305 5.9180000000000001 1.6549999999999998
   H   33.014000000000003 4.2270000000000003 2.1240000000000001
   C   33.451000000000001 4.4619999999999997 0.024
   H   32.558999999999997 3.8479999999999994 -0.063
   C   33.345999999999997 5.6859999999999999 -0.90400000000000003
   O   34.365000000000002 6.3109999999999999 -1.2050000000000001
   N   32.128 6.0599999999999996 -1.341
   C   30.873000000000001 5.3609999999999989 -1.093
   H   30.670999999999999 5.2839999999999989 -0.024
   H   30.917999999999996 4.367 -1.5409999999999999
   C   29.779 6.1760000000000002 -1.778
   H   29.286999999999999 6.8220000000000001 -1.0549999999999999
   H   29.053999999999998 5.5220000000000002 -2.2570000000000001
   C   30.529999999999998 7.0250000000000004 -2.802
   H   30.013000000000002 7.9630000000000001 -3.0110000000000001
   H   30.655000000000001 6.4509999999999996 -3.7210000000000001
   C   31.901 7.2480000000000002 -2.1560000000000001
   H   32.655000000000001 7.3170000000000002 -2.9419999999999997
   C   31.946000000000002 8.5190000000000001 -1.2909999999999999
   O   31.097000000000001 8.7029999999999994 -0.41999999999999998
   N   32.938000000000002 9.3840000000000003 -1.532
   H   33.619999999999997 9.1479999999999997 -2.2370000000000001
   C   33.015999999999998 10.744999999999999 -0.97399999999999987
   H   32.680999999999997 10.726000000000001 0.063
   C   34.451000000000001 11.263999999999999 -1.0109999999999999
   H   34.875999999999998 11.124000000000001 -2.0059999999999998
   H   34.454999999999991 12.327999999999999 -0.77000000000000002
   O   35.228999999999999 10.579000000000001 -0.048000000000000001
   H   34.787999999999997 10.661 0.80000000000000004
   C   32.119999999999997 11.723000000000001 -1.734
   O   32.253999999999998 11.771000000000001 -2.9769999999999999
   O   31.361999999999998 12.441000000000001 -1.0489999999999999
284
-7.2665388253899864e+03 frame 228   xyz file generated by TeraChem
     N     8.8610843661    3.5168073458    4.3596136504
     H     8.1821079981    4.2755939656    3.9568961858
     H     8.5860042542    2.5791060318    4.0589449399
     H     8.9049096816    3.5292190969    5.3857240253
     C    10.2047957695    3.9202334629    3.8075433911
     H    10.2933169637    3.4916115198    2.8065324220
     C    10.2777808353    5.4645583515    3.7353577103
     H    10.3137031033    5.8675253590    4.7581111979
     H    11.2044410234    5.7566027546    3.2372593227
     C     9.0851322157    6.1253563501    3.0063423323
     O     7.9170868611    5.5552293961    3.1631146152
     O     9.2919390481    7.1888311042    2.3543798592
     C    11.2803372510    3.3606554430    4.7420120683
     O    11.0066846503    3.1308424163    5.9546996359
     N    12.5005835801    3.1891352767    4.2051716073
     H    12.6772047357    3.3731859931    3.2222287690
     C    13.6577840790    2.7266777094    4.9757363406
     H    13.6358084720    3.2120178106    5.9573149866
     C    13.6446016708    1.1922367516    5.1680986534
     H    13.6661741911    0.6915800100    4.1953555587
     H    14.5096372159    0.8665581601    5.7535789541
     H    12.7346226235    0.9036781914    5.7002572997
     C    14.9086759696    3.1689841270    4.2128626459
     O    14.8324884179    3.4491710694    2.9809222257
     N    16.0443299888    3.2340672114    4.9354704976
     H    16.0072373877    3.0186707831    5.9252576130
     C    17.3708752323    3.5099478950    4.3749608605
     H    17.2037298421    3.9946623043    3.4081145128
     C    18.1201297653    4.4978415800    5.3079141083
     H    17.3901746093    5.2789425567    5.5563669494
     H    18.3689793588    3.9943566150    6.2502523306
     C    19.3629917851    5.1453471541    4.7170692379
     C    20.5913670126    5.0991613107    5.4059365903
     H    20.6504009491    4.5843600392    6.3609313106
     C    21.7393290225    5.7064867541    4.8886765604
     H    22.6835567587    5.6651683057    5.4202350046
     C    21.6725452451    6.3726808717    3.6589084025
     O    22.8496670891    6.9348397807    3.1754896130
     H    22.7204244639    7.3802650007    2.3135398393
     C    20.4569400247    6.4479783932    2.9622907404
     H    20.4034615977    6.9774602706    2.0156054671
     C    19.3156197126    5.8407055028    3.4939199617
     H    18.3806072083    5.9190560891    2.9476108665
     C    18.0661681793    2.1589645800    4.0746937905
     O    17.3714085500    1.1889563696    3.6471638829
     N    19.4018931265    2.0722262952    4.2523035001
     H    19.9065439996    2.9089537898    4.5191747015
     C    20.2103882722    0.8310192765    4.2444364138
     H    21.2079024750    1.1490509933    4.5523653283
     C    19.6924355209   -0.1972787940    5.2736066785
     H    19.6888974194    0.2560682380    6.2690256189
     H    18.6809730257   -0.5267597372    5.0286809785
     H    20.3578325647   -1.0661036903    5.2906264222
     C    20.4323838960    0.1582607511    2.8832545051
     O    21.5811332530   -0.3254637965    2.6526903519
     N    19.3899294946    0.0237378502    2.0318376202
     H    18.4786494177    0.3690089927    2.3479907252
     C    19.4683684125   -0.8279460962    0.8388279668
     H    20.2161149498   -1.6011718486    1.0335579599
     C    18.1134076459   -1.5218655184    0.5667389277
     H    17.3448949324   -0.7619284107    0.3792233464
     H    18.2352864053   -2.1013281649   -0.3523063397
     C    17.6490593669   -2.4514574959    1.6951654015
     H    17.5086345105   -1.9026417357    2.6335165816
     H    16.6621584007   -2.8554523205    1.4282743022
     C    18.5818305803   -3.6334965140    1.9281782981
     O    19.3955145049   -4.0350134167    1.0496002569
     N    18.4716407388   -4.2392068737    3.1365421718
     H    17.8203300490   -3.9206513479    3.8387807130
     H    19.0305519840   -5.0562774909    3.3412521770
     C    19.9221911626   -0.1001860296   -0.4365235513
     O    20.1305406467   -0.7703886338   -1.4857667270
     N    20.0501410964    1.2507151505   -0.3958679099
     H    19.8292445113    1.7249729258    0.4718502418
     C    20.1505088457    2.0515033080   -1.6160336811
     H    19.6766249158    1.4836927902   -2.4239502043
     C    19.3949342020    3.4103187862   -1.4570250746
     H    19.9707277306    4.0657391599   -0.7929344660
     H    19.4019026206    3.8726585631   -2.4500143104
     C    18.0006102474    3.2560107796   -0.9348983009
     C    17.5788070444    3.5701520292    0.3424046172
     H    18.1415819179    4.0079431321    1.1531347483
     N    16.2378901314    3.2486064875    0.4992551030
     H    15.7073459427    3.3738688832    1.3605886243
     C    15.7612125260    2.7255192798   -0.6929066435
     C    14.4812240491    2.2652819428   -1.0364020446
     H    13.6686615225    2.2806048795   -0.3165532858
     C    14.2904049470    1.7908537567   -2.3353521826
     H    13.3109559649    1.4295435364   -2.6334767664
     C    15.3515882433    1.7726844545   -3.2728297747
     H    15.1672036633    1.3980184649   -4.2751403549
     C    16.6246354160    2.2280325740   -2.9299082976
     H    17.4294367950    2.2092109541   -3.6592276730
     C    16.8478216396    2.7146952843   -1.6257982838
     C    21.5721895416    2.3349883802   -2.1058717892
     O    21.7280106391    2.8929086380   -3.2303536546
     N    22.6092886094    2.0073384608   -1.2996776647
     H    22.4322297562    1.5557972656   -0.4110154211
     C    23.9927814909    2.3063238125   -1.6911706647
     H    23.9900466589    2.3229344704   -2.7847921219
     C    24.4965518862    3.7081172717   -1.2303410286
     H    25.3947743670    3.9271043466   -1.8244238675
     H    23.7333002025    4.4352399691   -1.5388722956
     C    24.8465547449    3.9341020191    0.2606869007
     H    25.6232155858    3.2094187942    0.5458338182
     C    25.4445793004    5.3486319615    0.4216130051
     H    24.6919850942    6.1160792459    0.1945798144
     H    25.7881930170    5.5083459604    1.4503706413
     H    26.2975096876    5.5031197021   -0.2504248292
     C    23.6551721004    3.7462623870    1.2207154940
     H    22.8044271066    4.3741894167    0.9245097889
     H    23.3248304090    2.7037733920    1.2552067129
     H    23.9427967748    4.0366121065    2.2387883186
     C    24.9002733702    1.1785103483   -1.2107461474
     O    24.7923491741    0.7114812295   -0.0320818395
     N    25.8122458320    0.7434594719   -2.0930515875
     H    25.8857076192    1.1786022667   -3.0096453673
     C    26.8858005319   -0.2211475705   -1.8190615502
     H    27.1697033742   -0.1267452051   -0.7648557407
     C    26.5120478389   -1.7052485877   -2.1156865494
     H    26.0756765161   -1.7586956236   -3.1222468404
     H    27.4510995312   -2.2701862611   -2.1457262459
     C    25.5726960205   -2.3562699678   -1.0766749984
     H    25.7820444299   -3.4327387792   -1.0334365672
     H    25.8265533148   -1.9529364853   -0.0883645895
     C    24.0708488787   -2.1631552550   -1.3741165588
     H    23.8751887115   -1.1477055994   -1.7315838850
     H    23.7744840695   -2.8330744953   -2.1910248117
     C    23.1564810230   -2.4447923481   -0.1794722690
     H    22.1140758584   -2.2719485882   -0.4524124635
     H    23.2619881919   -3.4671453320    0.1907671821
     N    23.4773097199   -1.5104183648    0.9843789089
     H    24.1206245014   -1.9509715010    1.6470674912
     H    23.9380059954   -0.6414305043    0.6365469825
     H    22.6271181251   -1.2195659870    1.5113577497
     C    28.0587467739    0.2102806373   -2.7156250464
     O    27.8566603542    0.9165369507   -3.7454010227
     N    29.2817481479   -0.2193234084   -2.3543491730
     H    29.4227924911   -0.8069448406   -1.5382189728
     C    30.4775068045    0.0346404286   -3.1585160472
     H    30.2150526447   -0.0483802495   -4.2178708397
     C    31.0316298831    1.4640957198   -2.9236279597
     H    30.1833739584    2.1595710468   -2.9611790088
     H    31.4696116968    1.5532605611   -1.9230582542
     C    32.0552192214    1.9401676506   -3.9647690011
     O    32.6659035435    3.0513287944   -3.7026915469
     O    32.2500933119    1.2504474908   -5.0288879858
     C    31.4989538463   -1.0542396147   -2.7973320822
     O    31.3355546291   -1.7986576381   -1.7906173131
     N    32.5734661563   -1.0991638626   -3.6176225427
     H    32.5847141999   -0.4215689597   -4.3910602897
     C    33.6980658117   -2.0076461471   -3.4452587712
     H    33.5025368379   -2.6381411765   -2.5716131946
     H    33.8149385634   -2.6532063360   -4.3194568197
     C    35.0184933060   -1.2637067198   -3.2645946828
     O    36.0704277926   -1.6469210137   -3.8667767741
     N    35.0229978344   -0.2163280230   -2.4207081753
     H    34.1511079439    0.0513313900   -1.9813172893
     C    36.1425584524    0.7221698800   -2.2790465125
     H    36.2919965295    1.2599019751   -3.2184912477
     H    35.8570370698    1.4473928104   -1.5123659134
     C    37.4944499098    0.1104800416   -1.9254335695
     O    38.4718183710    0.2752116117   -2.7307336836
     N    37.6617323374   -0.5513360509   -0.7659875786
     C    36.6586098532   -0.7374285496    0.3193487803
     H    35.6885898672   -1.0115917541   -0.0953623775
     H    36.5524010886    0.1980143594    0.8830599550
     C    37.2862833657   -1.8456742115    1.1791642669
     H    37.0137092127   -2.8297033791    0.7807074324
     H    36.9440265196   -1.7964211689    2.2160232723
     C    38.8085892837   -1.6053480353    1.0538929167
     H    39.3951372347   -2.5109469462    1.2273052036
     H    39.1375415771   -0.8501884123    1.7751757856
     C    39.0164821147   -1.0436116186   -0.3817376588
     H    39.7209204081   -0.2071592916   -0.3833051407
     C    39.5665884956   -2.0570292710   -1.3870012893
     O    40.7924808703   -2.0583845874   -1.6941039127
     N    38.6816890723   -2.9191547065   -1.9389573890
     H    37.6969802681   -2.8798361402   -1.6974501835
     C    39.0198341593   -3.8932134691   -2.9686020255
     H    39.9173384000   -4.4505489938   -2.6767494343
     C    37.8463557148   -4.8982248585   -3.0913070712
     H    37.9256751095   -5.4281683807   -4.0453864271
     H    37.9002219896   -5.6214670394   -2.2764107114
     O    36.5557034012   -4.2463858633   -2.9341278312
     H    36.3959917691   -3.5448474471   -3.6105640776
     C    39.3656243406   -3.2724830625   -4.3353394115
     O    39.8311661474   -4.0192729335   -5.2387898457
     N    39.1509231601   -1.9440644393   -4.4847594564
     H    38.7108671509   -1.4084089933   -3.7406738825
     C    39.4782211278   -1.2085518383   -5.6978510742
     H    39.7603480222   -1.9394341506   -6.4629100236
     C    38.2483308332   -0.4126144934   -6.1979093490
     H    37.9988466514    0.3624384436   -5.4626896238
     H    38.5027906792    0.0681892217   -7.1424441198
     O    37.1168374711   -1.2783468994   -6.4402266228
     H    36.6868509525   -1.5017842881   -5.5796226413
     C    40.6648028519   -0.2563722777   -5.5056423943
     O    40.9792437405    0.5461959898   -6.4268831316
     N    41.3243945488   -0.3133836074   -4.3194282032
     H    41.0491875515   -0.9967686427   -3.6196068200
     C    42.4781174697    0.5241999812   -4.0390600305
     H    43.3017242304   -0.0794943362   -3.6462195367
     H    42.8125097996    0.9600249027   -4.9860992709
     C    42.2616526734    1.6830285791   -3.0700868090
     O    43.2668370853    2.3650462290   -2.7177057436
     N    41.0056664733    1.9744939436   -2.6482421111
     H    40.2265883942    1.3434193000   -2.8255910763
     C    40.8097485962    3.1289053456   -1.7635373484
     H    41.4730938466    3.9119403997   -2.1374972015
     C    39.3586056675    3.6590684878   -1.7749700746
     H    38.6904378134    2.9076817438   -1.3390235789
     H    39.3391665397    4.5216716387   -1.0934469385
     C    38.8514495087    4.0877019757   -3.1653299091
     H    39.6738877916    4.5177215894   -3.7530858193
     H    38.4835451383    3.2164065177   -3.7189350284
     C    37.7533098535    5.1667571451   -3.0918963209
     H    38.1728337051    6.0809071324   -2.6595237057
     H    37.4021501569    5.4220065848   -4.0964570230
     N    36.5921733890    4.8101093009   -2.2545703671
     H    36.6679088725    5.0059034113   -1.2651437186
     C    35.4217237936    4.2935008884   -2.6810169025
     N    35.2085636721    3.9422088379   -3.9617009846
     H    35.9326258476    3.9785178963   -4.6609365980
     H    34.2765530084    3.5785208117   -4.1992924399
     N    34.4137016236    4.1118758532   -1.8065457273
     H    34.4952540090    4.4086053713   -0.8462066956
     H    33.5371136927    3.7126011123   -2.1590467700
     C    41.1960212711    2.7751376184   -0.3176152200
     O    40.8193914548    1.6801141058    0.1984184364
     N    41.8854089928    3.6924308680    0.3969931128
     C    42.4180070752    4.9951465103   -0.0951078982
     H    41.6349600804    5.5783191466   -0.5847608159
     H    43.2237847189    4.8129502926   -0.8157455924
     C    42.9340241462    5.6815467914    1.1832233010
     H    42.1447666989    6.3014827934    1.6196257976
     H    43.7968515485    6.3212327183    0.9805636112
     C    43.2846633758    4.5139752981    2.1305490939
     H    43.2746019871    4.8119051361    3.1821083902
     H    44.2737506486    4.1033104351    1.9013919185
     C    42.2017980576    3.4454914595    1.8164362560
     H    42.5850726782    2.4300650099    1.9308944727
     C    40.9585036326    3.6471369514    2.6951171003
     O    39.9934566660    4.3738040982    2.3220179755
     N    40.9736628674    3.0633473047    3.9192466941
     C    42.0394938141    2.1881026873    4.4788460862
     H    43.0280406682    2.6227897973    4.3158697680
     H    42.0050369746    1.2034143291    3.9973404979
     C    41.6878027888    2.1028000118    5.9755441194
     H    42.1986581394    2.8965974055    6.5296035717
     H    41.9845316621    1.1433775818    6.4070457306
     C    40.1592252395    2.3150372327    6.0209025892
     H    39.8156734600    2.6845910459    6.9909725647
     H    39.6296568456    1.3809793809    5.8049772745
     C    39.8887900558    3.3350238652    4.8799952776
     H    38.9248775214    3.1659509975    4.3961385730
     C    39.9708248864    4.7813835947    5.3881354696
     O    41.0607429371    5.4239828615    5.3845271094
     N    38.8341811212    5.3224616854    5.8929616497
     C    37.5187800183    4.6464220302    6.0437657285
     H    37.6153258046    3.7761938247    6.7001444289
     H    37.1525224217    4.3075299341    5.0698647665
     C    36.5943138589    5.7169175780    6.6717950210
     H    36.3455800112    5.4480034048    7.7020194303
     H    35.6567367145    5.7964328958    6.1148759377
     C    37.3797035998    7.0515951684    6.6210707565
     H    37.1849833944    7.6783939332    7.4956889565
     H    37.1090453195    7.6288656988    5.7314358334
     C    38.8720152970    6.6484614941    6.5266566590
     H    39.4388222470    7.3370732282    5.8950526921
     C    39.5398142569    6.5711652838    7.9049573292
     O    39.4142621489    5.5193838294    8.6162661920
     N    40.1963782587    7.6721885206    8.2923789120
     H    40.2924882505    8.4849768565    7.6760120649
     C    40.7776845924    7.9572346319    9.6120583870
     H    39.9826917615    7.9827521527   10.3703152482
     C    41.8203247338    6.9299683682   10.0791881255
     H    42.5015086529    6.7002738958    9.2467667203
     H    42.3938111656    7.3809555632   10.8905631883
     O    41.2214193021    5.7193961808   10.6189943684
     H    40.5159344216    5.4355445523    9.9751139861
     C    41.3898587291    9.3942833047    9.5224549625
     O    41.2128588196   10.0298250719    8.4173548405
     O    42.0012177043    9.8178817643   10.5597018566
