14
0 1 -13.863784969189465
C       -2.05943045    -0.12243687    -0.49199351
C       -1.26132343     0.65591077     0.55431326
C        0.19346474     0.18744246     0.71919327
C        0.89413608    -0.16678032    -0.59273036
H       -3.10143836     0.19957783    -0.46989698
H       -2.02704086    -1.19423216    -0.28937357
H       -1.67014254     0.05604253    -1.49419218
H       -1.76220127     0.57650222     1.52436166
H       -1.26529183     1.71491352     0.27096016
H        0.21252583    -0.69612641     1.36783362
H        0.75544326     0.97707140     1.22796092
H        0.44447296    -1.04704743    -1.05178925
H        1.94510878    -0.38459025    -0.39785241
H        0.84090711     0.66278271    -1.29972464
