14
0 1 -13.863013602126422
C       -2.22243845     0.78827302    -0.57516992
C       -1.28844003     0.06744477     0.39615307
C        0.19095027     0.43148360     0.16019436
C        1.08044322    -0.80666618     0.05435400
H       -3.25871839     0.51351115    -0.37371996
H       -1.98662441     0.51678913    -1.60500155
H       -2.12537467     1.86994758    -0.47095678
H       -1.42714629    -1.01258933     0.27596006
H       -1.57181051     0.31659772     1.42354507
H        0.55044997     1.06723955     0.97535364
H        0.28643193     1.00908467    -0.76577524
H        1.02546999    -1.39908972     0.96885600
H        2.11851188    -0.51111269    -0.10380378
H        0.76748549    -1.43188325    -0.78291897
