14
0 1 -13.865306748834517
C       -2.03057081     0.36759785    -0.68234472
C       -1.29587358     0.32393381     0.65762939
C        0.22415610     0.47456568     0.52248300
C        0.86837344    -0.62081624    -0.32742268
H       -3.10810619     0.35572938    -0.51381443
H       -1.77292465    -0.49359792    -1.29917747
H       -1.77702992     1.27632706    -1.23072999
H       -1.52286069    -0.62281689     1.16043669
H       -1.66747270     1.13295543     1.29536726
H        0.66354190     0.45348113     1.52538232
H        0.45374086     1.45151083     0.08254637
H        0.60802786    -1.60864160     0.05626912
H        1.95384194    -0.51673500    -0.30394817
H        0.54234648    -0.55446352    -1.36560671
