14
0 1 -13.863765524285016
C       -2.13654930     0.62633360    -0.65430207
C       -1.29070653     0.17629215     0.53641419
C        0.20612083     0.47263000     0.33224929
C        0.98427088    -0.76425622    -0.11539728
H       -3.18729155     0.39101719    -0.48003677
H       -1.81664515     0.12163451    -1.56731779
H       -2.04321898     1.70289312    -0.80322771
H       -1.43940671    -0.89460393     0.70807470
H       -1.64329307     0.70040481     1.43118498
H        0.63460672     0.83075433     1.27446631
H        0.33143292     1.27166830    -0.40547164
H        0.91588209    -1.55090108     0.63718670
H        2.03620923    -0.51503672    -0.26071364
H        0.58777863    -1.14980006    -1.05603928
