14
0 1 -13.86525876301792
C       -2.26438207     0.90992333    -0.46237635
C       -1.28500465    -0.03928950     0.22659703
C        0.17271779     0.36621966    -0.02838310
C        1.13375146    -0.79621672     0.21661766
H       -3.29131292     0.60817828    -0.25307707
H       -2.11244736     0.89630819    -1.54248542
H       -2.12454555     1.93188636    -0.10638122
H       -1.45121368    -1.05296911    -0.15539727
H       -1.48026129    -0.05733779     1.30358006
H        0.43906824     1.21064619     0.61531295
H        0.28020805     0.69736561    -1.06755568
H        1.05108400    -1.15365900     1.24428313
H        2.16215431    -0.47736157     0.04294496
H        0.90937368    -1.62466389    -0.45660968
