14
0 1 -13.860430674388677
C       -2.00934365     0.04515688    -0.61094717
C       -1.29809292     0.54591348     0.64656377
C        0.23277583     0.32698263     0.68845677
C        0.84160884    -0.36274119    -0.53284251
H       -3.07673103     0.25388994    -0.52490834
H       -1.88252446    -1.03067787    -0.73497914
H       -1.63570791     0.54814945    -1.50329869
H       -1.74841971     0.04995863     1.51294833
H       -1.50351604     1.61659707     0.75057040
H        0.47908367    -0.26846624     1.57398061
H        0.72397801     1.29806382     0.81137702
H        0.42537069    -1.36093458    -0.67159476
H        1.91853023    -0.46065319    -0.38813048
H        0.67217850     0.21779116    -1.44012582
