14
0 1 -13.866068331185268
C       -2.46071199    -0.23778609     0.21109473
C       -1.19009720     0.50551731    -0.19827451
C        0.06712866    -0.30274858     0.13796039
C        1.33773607     0.44046899    -0.27158756
H       -3.34109986     0.35578836    -0.03759069
H       -2.46332955    -0.42833460     1.28537544
H       -2.52915992    -1.19417313    -0.30951354
H       -1.15129076     1.47092903     0.31785470
H       -1.21702792     0.70612764    -1.27481831
H        0.02825862    -1.26821220    -0.37806813
H        0.09412790    -0.50325000     1.21452219
H        1.34028650     0.63087829    -1.34589295
H        2.21812469    -0.15309681    -0.02288414
H        1.40624481     1.39692175     0.24889232
