14
0 1 -13.866068320772312
C       -2.26893589     0.96538310    -0.37461104
C       -1.28753279    -0.10561446     0.09921776
C        0.16455993     0.30833298    -0.15963644
C        1.14596304    -0.76266447     0.31419260
H       -3.29435164     0.64906928    -0.18041783
H       -2.15695393     1.13993552    -1.44576445
H       -2.09116358     1.90583661     0.14914455
H       -1.49647242    -1.04635887    -0.42163429
H       -1.43063132    -0.28144270     1.17092213
H        0.37349952     1.24907757     0.36121530
H        0.30765849     0.48416087    -1.23134087
H        1.03398126    -0.93721648     1.38534610
H        2.17137878    -0.44635078     0.11999909
H        0.96819057    -1.70311815    -0.20956261
