14
0 1 -13.862648709957035
C       -1.99672780     0.19569724    -0.66327604
C       -1.30303288     0.44106542     0.67692396
C        0.23636139     0.41608755     0.62531631
C        0.83036701    -0.49731020    -0.44725821
H       -3.07454648     0.30989486    -0.53926247
H       -1.80192083    -0.81294088    -1.02716396
H       -1.66129553     0.91120840    -1.41571957
H       -1.64695448    -0.32669404     1.37986544
H       -1.62160421     1.40943809     1.07519502
H        0.61194079     0.11036372     1.60680814
H        0.60174061     1.43326550     0.44171230
H        0.46845172    -1.52065405    -0.33578179
H        1.91719278    -0.50681153    -0.35327387
H        0.57921793    -0.14358009    -1.44701527
