14
0 1 -13.86073143120648
C       -2.00218473     0.09573932    -0.63324194
C       -1.30175586     0.51417850     0.65988075
C        0.23629960     0.35709994     0.67177146
C        0.83460374    -0.41153573    -0.50682499
H       -3.07480876     0.26678704    -0.53081875
H       -1.84553508    -0.96256089    -0.84231147
H       -1.64446277     0.67851383    -1.48296776
H       -1.72316229    -0.08128102     1.47742018
H       -1.54952182     1.56018149     0.86700985
H        0.53095293    -0.14389482     1.59945480
H        0.69218189     1.35329902     0.68864922
H        0.43966276    -1.42693573    -0.55790900
H        1.91663229    -0.47326735    -0.38163094
H        0.63028815     0.09270639    -1.45141142
