14
0 1 -13.865852019698
C       -2.45968626    -0.25850393     0.16388776
C       -1.18855895     0.53585288    -0.13254752
C        0.07097885    -0.27045027     0.20264923
C        1.33288058     0.41667058    -0.31707205
H       -3.34087918     0.33832382    -0.07402608
H       -2.50261664    -0.53433239     1.21872047
H       -2.48754886    -1.17109093    -0.43323036
H       -1.19239912     1.46673226     0.44410934
H       -1.17495113     0.80460997    -1.19472893
H       -0.00515982    -1.26605170    -0.24859969
H        0.14345309    -0.40354263     1.28713907
H        1.29123834     0.52134902    -1.40217562
H        2.21489906    -0.17056108    -0.05917727
H        1.43754008     1.41002437     0.12212159
