14
0 1 -13.865306118116099
C       -2.11832684    -0.19264708    -0.40969682
C       -1.23939916     0.68433439     0.48227260
C        0.16768594     0.11421466     0.69794297
C        0.95612660    -0.06060464    -0.60013998
H       -3.13059565     0.21203615    -0.44388945
H       -2.16671649    -1.21090811    -0.02033664
H       -1.73132187    -0.22830189    -1.42826315
H       -1.72048979     0.79505395     1.45982189
H       -1.16150551     1.68307219     0.03827403
H        0.09239912    -0.85422207     1.20503423
H        0.71655782     0.79136903     1.36089941
H        0.50074671    -0.81972443    -1.23644791
H        1.97633041    -0.37305327    -0.37389709
H        0.99769874     0.87841113    -1.15450409
