14
0 1 -13.863611992359766
C       -2.24146468     0.83381329    -0.54050552
C       -1.28695361     0.03154141     0.34299857
C        0.18474754     0.41256557     0.09920013
C        1.10320768    -0.80875410     0.11016578
H       -3.27399068     0.55006774    -0.33267516
H       -2.03588083     0.64405526    -1.59476322
H       -2.13264219     1.90323425    -0.35336539
H       -1.43020989    -1.03348594     0.12853267
H       -1.54141909     0.18745301     1.39591675
H        0.51413125     1.12748663     0.85952377
H        0.27892851     0.90715261    -0.87410087
H        1.04167429    -1.32849726     1.06756102
H        2.13767133    -0.50248586    -0.05076798
H        0.82139038    -1.50511657    -0.68065055
