14
0 1 -13.860730465706363
C       -2.01772101    -0.00341152    -0.58498459
C       -1.29214512     0.57569932     0.62993574
C        0.22668874     0.29557775     0.70171362
C        0.85013981    -0.31238726    -0.55508727
H       -3.07880405     0.24143299    -0.51845875
H       -1.92092939    -1.08914995    -0.62270402
H       -1.62996844     0.41621805    -1.51332271
H       -1.76465011     0.18425366     1.53654085
H       -1.45095230     1.65980639     0.63017527
H        0.41998408    -0.38764680     1.53618893
H        0.74607019     1.23190478     0.92965680
H        0.41472631    -1.28601669    -0.78028386
H        1.92062881    -0.44789902    -0.39396121
H        0.71612252     0.34064830    -1.41833882
