14
0 1 -13.86522443465803
C       -2.07392257     0.50261478    -0.68055415
C       -1.29233943     0.25138821     0.60879670
C        0.21502109     0.48200818     0.43575845
C        0.91607318    -0.70529323    -0.22397934
H       -3.13888113     0.33977251    -0.51072319
H       -1.74555291    -0.17130344    -1.47304173
H       -1.93054370     1.52976393    -1.01927259
H       -1.47111325    -0.77184514     0.95548327
H       -1.66630120     0.93072213     1.38247683
H        0.66170206     0.64794582     1.42209700
H        0.38359461     1.38667551    -0.15780548
H        0.78345695    -1.60733989     0.37522665
H        1.98422503    -0.50533290    -0.31652332
H        0.51377130    -0.89074646    -1.22086913
