3    
Image 1/11, Energy =   -92.3396907342 (+9.017 kcal/mol)
C       -0.7404826979   -0.8145629256    0.0000000000
N        0.0395802153    0.0435504208    0.0000000000
H        0.7009024826    0.7710125048   -0.0000000000
3    
Image 2/11, Energy =   -92.3294937117 (+15.416 kcal/mol)
C       -0.5503920024   -0.9023422378   -0.0000000000
N       -0.1380179603    0.1851590797    0.0000000000
H        0.6884099626    0.7171831581   -0.0000000000
3    
Image 3/11, Energy =   -92.2988108429 (+34.669 kcal/mol)
C       -0.3796235328   -0.8605907573   -0.0000000000
N       -0.3091162768    0.3216751013    0.0000000000
H        0.6887398095    0.5389156560   -0.0000000000
3    
Image 4/11, Energy =   -92.2692380583 (+53.227 kcal/mol)
C       -0.2506977672   -0.7817657602   -0.0000000000
N       -0.4350340783    0.3946877752    0.0000000000
H        0.6857318454    0.3870779850    0.0000000000
3    
Image 5/11, Energy =   -92.2460209433 (+67.796 kcal/mol)
C       -0.1114520629   -0.6378813621   -0.0000000000
N       -0.6392459075    0.4207199795    0.0000000000
H        0.7506979704    0.2171613826    0.0000000000
3    
Image 6/11, Energy =   -92.2840428203 (+43.937 kcal/mol)
C       -0.0414442463   -0.4343765822   -0.0000000000
N       -0.8639442859    0.3709852009    0.0000000000
H        0.9053885321    0.0633913813    0.0000000000
3    
Image 7/11, Energy =   -92.3320630018 (+13.803 kcal/mol)
C       -0.0066184222   -0.2376802850    0.0000000000
N       -1.0073143796    0.3011678706   -0.0000000000
H        1.0139328017   -0.0634875857   -0.0000000000
3    
Image 8/11, Energy =   -92.3540569557 (+0.002 kcal/mol)
C        0.0287225612    0.0039240858    0.0000000000
N       -1.1073698278   -0.0484931283    0.0000000000
H        1.0786472666    0.0445690425    0.0000000000
3    
Image 9/11, Energy =   -92.3540601306 (+0.000 kcal/mol)
C        0.0275200093    0.0090101231    0.0000000000
N       -1.0565517365   -0.3341887098    0.0000000000
H        1.0290317272    0.3251785867   -0.0000000000
3    
Image 10/11, Energy =   -92.3540590427 (+0.001 kcal/mol)
C        0.0267335616    0.0113405625   -0.0000000000
N       -0.9940615323   -0.4896556485    0.0000000000
H        0.9673279706    0.4783150860   -0.0000000000
3    
Image 11/11, Energy =   -92.3540601665 (+0.000 kcal/mol)
C        0.0194876257    0.0214346630   -0.0000000000
N       -0.7454621472   -0.8199441009    0.0000000000
H        0.7259745215    0.7985094380   -0.0000000000
