3    
Image 0/11, Energy =   -92.8141878354 (+8.803 kcal/mol)
C       -0.7519862184   -0.8272338399    0.0000000000
N        0.0394753354    0.0434721365    0.0000000000
H        0.7125108830    0.7837617034    0.0000000000
3    
Image 1/11, Energy =   -92.8038449843 (+15.293 kcal/mol)
C       -0.6226651345   -0.8498327628    0.0000000000
N       -0.1308577660    0.2148389082    0.0000000000
H        0.7535229005    0.6349938545    0.0000000000
3    
Image 2/11, Energy =   -92.7727618053 (+34.798 kcal/mol)
C       -0.4568918116   -0.8119730069    0.0000000000
N       -0.2791343716    0.3661636902    0.0000000000
H        0.7360261832    0.4458093167    0.0000000000
3    
Image 3/11, Energy =   -92.7427076779 (+53.657 kcal/mol)
C       -0.2969207569   -0.7404995604    0.0000000000
N       -0.4109987111    0.4485103158    0.0000000000
H        0.7079194680    0.2919892447    0.0000000000
3    
Image 4/11, Energy =   -92.7236064005 (+65.643 kcal/mol)
C       -0.1092497167   -0.6380872966    0.0000000000
N       -0.6387949884    0.4243207143    0.0000000000
H        0.7480447050    0.2137665823    0.0000000000
3    
Image 5/11, Energy =   -92.7618714399 (+41.632 kcal/mol)
C        0.0858220090   -0.4311443644    0.0000000000
N       -0.9360979094    0.1139390487    0.0000000000
H        0.8502759004    0.3172053157    0.0000000000
3    
Image 6/11, Energy =   -92.8191805661 (+5.670 kcal/mol)
C        0.1170105714   -0.1176492890    0.0000000000
N       -0.9541268989   -0.5133898770    0.0000000000
H        0.8371163275    0.6310391660    0.0000000000
3    
Image 7/11, Energy =   -92.8282118897 (+0.002 kcal/mol)
C        0.0232091898    0.0201307892    0.0000000000
N       -0.7548539215   -0.8185333832    0.0000000000
H        0.7316447317    0.7984025940    0.0000000000
3    
Image 8/11, Energy =   -92.8282152908 (+0.000 kcal/mol)
C        0.0213658040    0.0218702322    0.0000000000
N       -0.7507545040   -0.8222216571    0.0000000000
H        0.7293887000    0.8003514249    0.0000000000
3    
Image 9/11, Energy =   -92.8282158187 (+0.000 kcal/mol)
C        0.0205277935    0.0224973736    0.0000000000
N       -0.7492841189   -0.8239748590    0.0000000000
H        0.7287563254    0.8014774854    0.0000000000
3    
Image 10/11, Energy =   -92.8275480229 (+0.419 kcal/mol)
C        0.0194260556    0.0213642891    0.0000000000
N       -0.7589320377   -0.8347584640    0.0000000000
H        0.7395059821    0.8133941749    0.0000000000
