7    
Iteration 8 Energy -170.68484162
H       -0.3522631099    0.1520908056    1.5918922868
C       -0.8528705720   -0.2742214079   -0.6707812538
C       -0.9921757491    0.9884534235   -0.6210189928
C        0.1218847255    0.1583965302    0.6122777897
N        1.3852959995    0.1068110793    0.5265049999
H        1.6842770329    0.1408739729   -0.4547004489
H       -0.9421896469   -1.3149256831   -0.9321771655
