%NProcShared=6
#p force=nostep hf/6-31g*

Downloaded from PubChem

0 1
O        0.6991000000   -2.2606000000   -0.2425000000
O       -3.4065000000    2.8382000000   -0.3438000000
O       -0.9651000000   -3.3646000000    0.9187000000
N       -1.4047000000    1.6201000000   -0.9940000000
N        1.6652000000    2.1369000000    0.7909000000
C       -1.2090000000   -0.7716000000   -0.2858000000
C       -1.0161000000    0.2513000000   -1.4669000000
C        1.0344000000    0.1355000000   -0.3771000000
C        0.2278000000   -1.0095000000    0.2555000000
C       -2.1626000000   -0.1404000000    0.7738000000
C        0.4830000000    0.2358000000   -1.7858000000
C       -0.7863000000    1.8889000000    0.3488000000
C       -1.4802000000    1.0645000000    1.4524000000
C        0.6643000000    1.4697000000    0.2918000000
C       -2.8978000000    1.6141000000   -0.8711000000
C       -3.3356000000    0.4566000000    0.0163000000
C        2.5062000000    0.1813000000   -0.1885000000
C        2.8096000000    1.3650000000    0.5031000000
C       -4.5921000000    0.0012000000    0.0930000000
C        3.4978000000   -0.6985000000   -0.5794000000
C        4.1182000000    1.6834000000    0.8252000000
C        0.0048000000   -3.3604000000    0.1728000000
C        4.8194000000   -0.3830000000   -0.2570000000
C       -5.0091000000   -1.1567000000    0.9350000000
C        5.1271000000    0.7973000000    0.4405000000
C        0.6083000000   -4.5947000000   -0.4259000000
H       -1.6768000000   -1.6689000000   -0.7069000000
H       -1.5874000000   -0.0277000000   -2.3605000000
H        0.2968000000   -1.0239000000    1.3490000000
H       -2.4414000000   -0.8697000000    1.5377000000
H        0.7509000000   -0.6382000000   -2.3912000000
H        0.8051000000    1.1319000000   -2.3299000000
H       -0.8290000000    2.9585000000    0.5826000000
H       -2.2257000000    1.6799000000    1.9739000000
H       -0.7701000000    0.7314000000    2.2181000000
H       -3.3231000000    1.5003000000   -1.8760000000
H       -5.3713000000    0.4934000000   -0.4831000000
H        3.2665000000   -1.6081000000   -1.1220000000
H       -4.3774000000    2.7939000000   -0.3710000000
H        4.3603000000    2.5962000000    1.3588000000
H        5.6206000000   -1.0564000000   -0.5497000000
H       -5.3496000000   -0.8119000000    1.9157000000
H       -4.2267000000   -1.9086000000    1.0640000000
H       -5.8485000000   -1.6676000000    0.4506000000
H        6.1628000000    1.0233000000    0.6801000000
H        1.6473000000   -4.6935000000   -0.1017000000
H        0.5479000000   -4.5446000000   -1.5159000000
H        0.0518000000   -5.4726000000   -0.0855000000

