14
0 1 -13.863766775970824
C       -2.28173320    -0.29258635    -0.20705684
C       -1.21151763     0.67735808     0.29258555
C        0.12693774    -0.02836845     0.57621843
C        1.12944966     0.15460412    -0.56276663
H       -3.21069335     0.24267243    -0.40788418
H       -2.47992671    -1.06058643     0.54178536
H       -1.95934373    -0.78180835    -1.12759237
H       -1.57241391     1.14930156     1.21272395
H       -1.06515877     1.47348037    -0.44441076
H       -0.04279621    -1.09619750     0.74746877
H        0.56373132     0.38190116     1.49301811
H        0.73047314    -0.24640437    -1.49586295
H        2.05960709    -0.36673778    -0.33296164
H        1.35257460     1.21240151    -0.70819484
