14
0 1 -13.86548218286077
C       -2.05092300     0.43530916    -0.68386731
C       -1.29388293     0.28786978     0.63596481
C        0.21955688     0.48030829     0.48101252
C        0.89074770    -0.66502356    -0.27696025
H       -3.12375555     0.34525600    -0.50942264
H       -1.75415758    -0.33693745    -1.39432956
H       -1.85406626     1.41102545    -1.13090496
H       -1.49450210    -0.70058282     1.06335914
H       -1.66891763     1.03521003     1.34346172
H        0.66506000     0.55207709     1.47905889
H        0.41644706     1.42541597    -0.03663430
H        0.69588220    -1.61759403     0.21827147
H        1.96940515    -0.50726300    -0.31042503
H        0.52229610    -0.72604091    -1.30151452
