14
0 1 -13.864721510540901
C       -2.08532111    -0.15730261    -0.45351916
C       -1.24959056     0.67387068     0.52024046
C        0.18005804     0.15002623     0.71275427
C        0.92141207    -0.11581185    -0.59767569
H       -3.11584417     0.20019548    -0.45136950
H       -2.08528039    -1.20938557    -0.16368090
H       -1.69943824    -0.07551119    -1.46963041
H       -1.74468645     0.69156485     1.49661060
H       -1.20798696     1.70623152     0.15442322
H        0.14728587    -0.77968011     1.29231799
H        0.73982156     0.88401406     1.30153126
H        0.47109797    -0.94653724    -1.14098964
H        1.96073691    -0.37099992    -0.38679615
H        0.90692548     0.76835567    -1.23714635
