14
0 1 -13.862646785383953
C       -2.04086348    -0.08643677    -0.52596888
C       -1.27317513     0.63201443     0.58400161
C        0.20650479     0.22515180     0.71826625
C        0.87450169    -0.21518779    -0.58458954
H       -3.09020708     0.20976452    -0.49053942
H       -1.98679249    -1.16931910    -0.40315069
H       -1.64733154     0.17509195    -1.50803372
H       -1.77157124     0.45123477     1.54148241
H       -1.32848058     1.70941291     0.38899643
H        0.28327717    -0.60271988     1.43283443
H        0.76190123     1.06849044     1.14036124
H        0.42463084    -1.13158728    -0.96609211
H        1.93285252    -0.40669124    -0.40201783
H        0.79394332     0.55981124    -1.34848020
