14
0 1 -13.862823272180071
C       -2.19824493     0.73809932    -0.60612548
C       -1.28962718     0.10341444     0.44605791
C        0.19663880     0.44783692     0.21923611
C        1.05262527    -0.79862210    -0.00241243
H       -3.23879264     0.47362237    -0.41296099
H       -1.93216407     0.38760466    -1.60435840
H       -2.10847938     1.82510043    -0.58505716
H       -1.42773206    -0.98279667     0.42416323
H       -1.59970532     0.44729747     1.43802671
H        0.58344755     0.99585315     1.08437384
H        0.29791311     1.10593785    -0.65027732
H        0.99952639    -1.45941808     0.86396065
H        2.09472551    -0.51609890    -0.15800114
H        0.70905896    -1.34880085    -0.87955553
