14
0 1 -13.864438511505542
C       -2.25536037     0.87443364    -0.50275573
C       -1.28562711    -0.00414483     0.28644595
C        0.17848341     0.39085797     0.03624771
C        1.12090427    -0.80519373     0.16440878
H       -3.28468682     0.58159344    -0.29213581
H       -2.07800688     0.77069601    -1.57398710
H       -2.13210595     1.92417061    -0.23159387
H       -1.43790647    -1.04658654    -0.01567644
H       -1.51028303     0.06235706     1.35553747
H        0.47634534     1.17528613     0.73895690
H        0.27651209     0.80270198    -0.97465612
H        1.04997902    -1.24666815     1.15976704
H        2.15207139    -0.49095793    -0.00166135
H        0.86887113    -1.56951562    -0.57182742
