14
0 1 -13.864722789660398
C       -2.01306212     0.30447855    -0.67825100
C       -1.29845555     0.36167295     0.67214350
C        0.22891948     0.46218274     0.56076539
C        0.84915509    -0.57756959    -0.37289511
H       -3.09201737     0.35257860    -0.52551044
H       -1.78523054    -0.62328169    -1.20306691
H       -1.71687183     1.14424008    -1.30908865
H       -1.55890926    -0.53548232     1.24537021
H       -1.66066435     1.22765629     1.23571580
H        0.65580225     0.34795502     1.56249351
H        0.49819716     1.46190589     0.20110483
H        0.53852851    -1.58513528    -0.09145812
H        1.93691196    -0.52336163    -0.31261061
H        0.55688659    -0.39880961    -1.40764243
