14
0 1 -13.864437138784716
C       -2.44012880    -0.28851112     0.06331815
C       -1.19127951     0.58965012    -0.00249823
C        0.08414465    -0.20283436     0.32540555
C        1.30566737     0.35768913    -0.40179396
H       -3.32872916     0.30425616    -0.15724001
H       -2.55294421    -0.72400473     1.05744396
H       -2.37495927    -1.09878004    -0.66398451
H       -1.29275738     1.43195674     0.68892654
H       -1.11195414     1.00428529    -1.01390266
H       -0.04942691    -1.24801492     0.02389268
H        0.25882938    -0.19420096     1.40580229
H        1.16581636     0.29987738    -1.48200295
H        2.19610578    -0.21371317    -0.13674979
H        1.47080587     1.40137446    -0.12954713
